/batch
/config,noeldb,1     ! force off writing results to database
*get,_wallstrt,active,,time,wall
! ANSYS input file written by Workbench version 2025 R2
! File used for geometry attach: C:\Users\Sebastian\Desktop\Coding\FEM2\Projekt\CAD\Balken_9.stp
/title,Rad_Shell--Statisch-mechanisch (A5)
! ****** Begin Custom Load Command Snippet ******
/COM, ACT Extensions:
/COM,     LSDYNA, 2025.2
/COM,     5f463412-bd3e-484b-87e7-cbc0a665e474, wbex
/COM,/COM,     ANSYSMotion, 2025.2
/COM,     20180725-3f81-49eb-9f31-41364844c769, wbex
/COM,
! ****** End   Custom Load Command Snippet ******
*DIM,_wb_ProjectScratch_dir,string,248
_wb_ProjectScratch_dir(1) = 'C:\Users\Sebastian\Desktop\Coding\FEM2\Projekt\ANSYS\_ProjectScratch\ScrEDEA\'
*DIM,_wb_SolverFiles_dir,string,248
_wb_SolverFiles_dir(1) = 'C:\Users\Sebastian\Desktop\Coding\FEM2\Projekt\ANSYS\Rad_Shell_files\dp0\SYS\MECH\'
*DIM,_wb_userfiles_dir,string,248
_wb_userfiles_dir(1) = 'C:\Users\Sebastian\Desktop\Coding\FEM2\Projekt\ANSYS\Rad_Shell_files\user_files\'
/com,--- Data in consistent NMM units. See Solving Units in the help system for more information.
/units,MPA
/nopr
/wb,file,start              !  signify a WB generated input file
/prep7
! Turn off shape checking because checks already performed inside WB mesher.
! See help system for more information.
SHPP,OFF,,NOWARN
/nolist
etcon,set             ! allow ANSYS to choose best KEYOP's for 180x elements, resets any applicable keyopt to MAPDL defaults
/com,*********** Send User Defined Coordinate System(s) ***********
csys,0
/com,*********** Nodes for the whole assembly ***********
nblock,3,,2293
(1i9,3e20.9e3)
        1     9.000000000E+03     6.942999878E+02     0.000000000E+00
        2     8.900000000E+03     6.943000000E+02     0.000000000E+00
        3     9.000000000E+03     5.951142753E+02     0.000000000E+00
        4     8.900000000E+03     5.951142857E+02     0.000000000E+00
        5     9.000000000E+03     4.959285627E+02     0.000000000E+00
        6     8.900000000E+03     4.959285714E+02     0.000000000E+00
        7     9.000000000E+03     3.967428502E+02     0.000000000E+00
        8     8.900000000E+03     3.967428571E+02     0.000000000E+00
        9     9.000000000E+03     2.975571376E+02     0.000000000E+00
       10     8.900000000E+03     2.975571429E+02     0.000000000E+00
       11     9.000000000E+03     1.983714251E+02     0.000000000E+00
       12     8.900000000E+03     1.983714286E+02     0.000000000E+00
       13     9.000000000E+03     9.918571254E+01     0.000000000E+00
       14     8.900000000E+03     9.918571429E+01     0.000000000E+00
       15     9.000000000E+03     1.392832536E-28     0.000000000E+00
       16     8.900000000E+03     1.377356619E-28     0.000000000E+00
       17     8.800000000E+03     6.943000000E+02     0.000000000E+00
       18     8.800000000E+03     5.951142857E+02     0.000000000E+00
       19     8.800000000E+03     4.959285714E+02     0.000000000E+00
       20     8.800000000E+03     3.967428571E+02     0.000000000E+00
! ... 2066 like lines cut
/wb,elem,start            !  set before creation of elements
/com,*********** Elements for Body 1 'Balken_9|Fl_1' ***********
et,1,183
keyo,1,3,3
MAT,1 $ TYPE,1 $ REAL,1 $ SECNUM,1 $ ESYS,0
eblock,11,COMPACT,,630
(11i9)
        1      719      727      728      720     2085      832      922     2079
        2      718      726      727      719     2084      831     2085     2077
        3      717      725      726      718     2083      830     2084     2075
        4      716      724      725      717     2082      829     2083     2073
        5      715      723      724      716     2081      828     2082     2071
        6      714      722      723      715     2080      827     2081     2069
        7      713      721      722      714      818      826     2080     2067
        8      711      719      720      712     2078     2079      921     2066
        9      710      718      719      711     2076     2077     2078     2064
       10      709      717      718      710     2074     2075     2076     2062
       11      708      716      717      709     2072     2073     2074     2060
       12      707      715      716      708     2070     2071     2072     2058
       13      706      714      715      707     2068     2069     2070     2056
       14      705      713      714      706      817     2067     2068     2054
       15      703      711      712      704     2065     2066      920     2053
       16      702      710      711      703     2063     2064     2065     2051
       17      701      709      710      702     2061     2062     2063     2049
       18      700      708      709      701     2059     2060     2061     2047
       19      699      707      708      700     2057     2058     2059     2045
       20      698      706      707      699     2055     2056     2057     2043
! ... 611 like lines cut
secnum,1    ! reset the section ID to default
! Material Id = {A67F7514-7C85-439C-83FC-A4CD8B774698}
/wb,elem,end               !  done creating elements
toffst,273.15,      ! Temperature offset from absolute zero
/com,*********** Set Reference Temperature ***********
tref,22.
/wb,mat,start              !  starting to send materials
/com,*********** Send Materials ***********
Temperature = 'TEMP' ! Temperature
MP,DENS,1,7.85e-09,	! tonne mm^-3
MP,ALPX,1,1.2e-05,	! C^-1
MP,C,1,434000000,	! mm^2 s^-2 C^-1
MP,KXX,1,60.5,	! tonne mm s^-3 C^-1
MP,RSVX,1,0.00017,	! ohm mm
MP,EX,1,205000,	! tonne s^-2 mm^-1
MP,NUXY,1,0.29,
MP,MURX,1,10000,

TB,PLAS,1,1,,BKIN
TBDATA,1,0.000695,0.002091
MP,UVID,1,57a6027f-d39a-4784-bf75-d6b8432b9505
MP,UMID,1,c53850c3-7946-4df6-bcf3-d96f8dc1ef3b

/wb,mat,end                !  done sending materials
/com,*********** Send Sheet Properties ***********
r,1,58.

!************************* Model Summary ********************
!Balken_9|Flä1,	Nicht-linear 25CrMo4,	matid,	1
!************************* End Model Summary ********************
! get the diagonal of the bounding box. Needed later for other things
*get,_xmin,node,,mnloc,x
*get,_ymin,node,,mnloc,y
*get,_zmin,node,,mnloc,z
*get,_xmax,node,,mxloc,x
*get,_ymax,node,,mxloc,y
*get,_zmax,node,,mxloc,z
_ASMDIAG=(_xmax-_xmin)*(_xmax-_xmin)+(_ymax-_ymin)*(_ymax-_ymin)+(_zmax-_zmin)*(_zmax-_zmin)
_ASMDIAG=SQRT(_ASMDIAG)
/wb,contact,start          !  starting to send contact
/wb,contact,end            !  done creating contacts
/golist
/wb,load,start             !  starting to send loads
/com,*********** Fixed Supports ***********
CMBLOCK,_FIXEDSU,NODE,        4
(8i10)
       721      -728       826      -832
cmsel,s,_FIXEDSU
d,all,all
nsel,all
/com,*********** Define Force Using Surface Effect Elements ***********
local,12,0,0.,0.,0.,0.,0.,0.
csys,0
et,2,153
keyop,2,3,10        ! get plane stress option and thickness from underlying element
MAT,2 $ TYPE,2 $ REAL,2 $ SECNUM,2 $ ESYS,12
eblock,11,COMPACT,,7
(11i9)
      631       13       15      825
      632       11       13      824
      633        9       11      823
      634        7        9      822
      635        5        7      821
      636        3        5      820
      637        1        3      819
-1
secnum,1    ! reset the section ID to default
esel,s,type,,2
keyop,2,2,1         ! Apply load in local coordinate system
keyop,2,7,1         ! Use original area so load is constant in large deformation
keyop,2,11,2        ! Use real and not project area
esel,all

*DIM,_loadvari65x,TABLE,61,1,1,TIME, , , 0
! Time values
*TAXIS,_loadvari65x(1),1,0.,1.,2.,3.,4.,5.,6.,7.,8.,9.
*TAXIS,_loadvari65x(11),1,10.,11.,12.,13.,14.,15.,16.,17.,18.,19.
*TAXIS,_loadvari65x(21),1,20.,21.,22.,23.,24.,25.,26.,27.,28.,29.
*TAXIS,_loadvari65x(31),1,30.,31.,32.,33.,34.,35.,36.,37.,38.,39.
*TAXIS,_loadvari65x(41),1,40.,41.,42.,43.,44.,45.,46.,47.,48.,49.
*TAXIS,_loadvari65x(51),1,50.,51.,52.,53.,54.,55.,56.,57.,58.,59.
*TAXIS,_loadvari65x(61),1,60.
! Load values
_loadvari65x(1,1,1) = 0.
_loadvari65x(2,1,1) = 3.10409398197447e-004
_loadvari65x(3,1,1) = 9.08878717922125e-004
_loadvari65x(4,1,1) = 1.7507090058336e-003
_loadvari65x(5,1,1) = 2.75643545599333e-003
_loadvari65x(6,1,1) = 3.22825774125345e-003
_loadvari65x(7,1,1) = 3.5510835153788e-003
_loadvari65x(8,1,1) = 3.70008002651357e-003
_loadvari65x(9,1,1) = 3.70008002651357e-003
_loadvari65x(10,1,1) = 3.5510835153788e-003
_loadvari65x(11,1,1) = 3.22825774125345e-003
_loadvari65x(12,1,1) = 2.75643545599333e-003
_loadvari65x(13,1,1) = 2.19024871368119e-003
_loadvari65x(14,1,1) = 1.51479786320354e-003
_loadvari65x(15,1,1) = 7.74781857900828e-004
_loadvari65x(16,1,1) = 0.
_loadvari65x(17,1,1) = -7.74781857900828e-004
_loadvari65x(18,1,1) = -1.51479786320354e-003
_loadvari65x(19,1,1) = -2.19024871368119e-003
_loadvari65x(20,1,1) = -2.75643545599333e-003
! ... 41 like lines cut



*DIM,_loadvari65y,TABLE,61,1,1,TIME, , , 0
! Time values
*TAXIS,_loadvari65y(1),1,0.,1.,2.,3.,4.,5.,6.,7.,8.,9.
*TAXIS,_loadvari65y(11),1,10.,11.,12.,13.,14.,15.,16.,17.,18.,19.
*TAXIS,_loadvari65y(21),1,20.,21.,22.,23.,24.,25.,26.,27.,28.,29.
*TAXIS,_loadvari65y(31),1,30.,31.,32.,33.,34.,35.,36.,37.,38.,39.
*TAXIS,_loadvari65y(41),1,40.,41.,42.,43.,44.,45.,46.,47.,48.,49.
*TAXIS,_loadvari65y(51),1,50.,51.,52.,53.,54.,55.,56.,57.,58.,59.
*TAXIS,_loadvari65y(61),1,60.
! Load values
_loadvari65y(1,1,1) = 0.
_loadvari65y(2,1,1) = 4.80386993015518e-036
_loadvari65y(3,1,1) = 1.40657311554944e-035
_loadvari65y(4,1,1) = 2.70938264060752e-035
_loadvari65y(5,1,1) = 4.2658364979778e-035
_loadvari65y(6,1,1) = 4.99602472736139e-035
_loadvari65y(7,1,1) = 5.49562720009753e-035
_loadvari65y(8,1,1) = 5.72621295674498e-035
_loadvari65y(9,1,1) = 5.72621295674498e-035
_loadvari65y(10,1,1) = 5.49562720009753e-035
_loadvari65y(11,1,1) = 4.99602472736139e-035
_loadvari65y(12,1,1) = 4.2658364979778e-035
_loadvari65y(13,1,1) = 3.3896106227175e-035
_loadvari65y(14,1,1) = 2.34428852591573e-035
_loadvari65y(15,1,1) = 1.19904593456673e-035
_loadvari65y(16,1,1) = 0.
_loadvari65y(17,1,1) = -1.19904593456673e-035
_loadvari65y(18,1,1) = -2.34428852591573e-035
_loadvari65y(19,1,1) = -3.3896106227175e-035
_loadvari65y(20,1,1) = -4.2658364979778e-035
! ... 41 like lines cut


tblist
/gst,on,on
fini
*get,_numnode,node,0,count
*get,_numelem,elem,0,count
*get, _MAXELEMNUM, elem, 0, NUM, MAX
*get, _MAXNODENUM, node, 0, NUM, MAX
*get, _MAXELEMTYPE, etyp, 0, NUM, MAX
*get, _MAXREALCONST, rcon, 0, NUM, MAX
/go
/wb,load,end               !  done creating loads
/com,--- Number of total nodes = %_numnode%
/com,--- Number of contact elements = 7
/com,--- Number of spring elements = 0
/com,--- Number of bearing elements = 0
/com,--- Number of solid elements = 630
/com,--- Number of condensed parts = 0
/com,--- Number of total elements = %_numelem%
*get,_wallbsol,active,,time,wall
/com,****************************************************************************
/com,*************************    SOLUTION       ********************************
/com,****************************************************************************
/solu
antype,0                   ! static analysis
nlgeom,on                  ! Turn on Large Deformation Effects
_thickRatio=  0     ! Ratio of thick parts in the model
eqsl,sparse,,,,,1
cntr,print,1               ! print out contact info and also make no initial contact an error
cncheck,dmp		!	Enable program controlled contact splitting for distributed memory parallel run
dmpoption,emat,no             ! Don't combine emat file for DANSYS
dmpoption,esav,no             ! Don't combine esav file for DANSYS
nldiag,cont,iter           ! print out contact info each equilibrium iteration
rescontrol,define,last,last,,dele	   ! Program Controlled
/com,****************************************************
/com,******************* SOLVE FOR LS 1 OF 60 ****************
esel,s,type,,2
nsle
sfe,all,1,pres,1,%_loadvari65x%
sfe,all,2,pres,1,%_loadvari65y%
nsel,all
esel,all
/nopr
/gopr
autots,on                   ! User turned on automatic time stepping
nsub,50,50,30,OFF
time,1.
outres,erase
outres,all,none
outres,nsol,all,
outres,rsol,all
outres,eangl,all
outres,etmp,all
outres,veng,all
outres,strs,all,
outres,epel,all,
outres,eppl,all,
outres,cont,all,
! *********** WB SOLVE COMMAND ***********
! check interactive state
*get,ANSINTER_,active,,int
*if,ANSINTER_,ne,0,then
/eof
*endif
solve
/com *************** Write FE CONNECTORS ********* 
CEWRITE,file,ce,,INTE
/com,****************************************************
/com,*************** FINISHED SOLVE FOR LS 1 *************
/com,****************************************************
/com,******************* SOLVE FOR LS 2 OF 60 ****************
/nopr
/gopr
autots,off                 ! User turned off automatic time stepping
deltim,5.e-002,5.e-002,5.e-002
time,2.
outres,erase
outres,all,none
outres,nsol,all,
outres,rsol,all
outres,eangl,all
outres,etmp,all
outres,veng,all
outres,strs,all,
outres,epel,all,
outres,eppl,all,
outres,cont,all,
solve
/com,****************************************************
/com,*************** FINISHED SOLVE FOR LS 2 *************
/com,****************************************************
/com,******************* SOLVE FOR LS 3 OF 60 ****************
/nopr
/gopr
autots,off                 ! User turned off automatic time stepping
nsub,30,30,30
time,3.
outres,erase
outres,all,none
outres,nsol,all,
outres,rsol,all
outres,eangl,all
outres,etmp,all
outres,veng,all
outres,strs,all,
outres,epel,all,
outres,eppl,all,
outres,cont,all,
solve
/com,****************************************************
/com,*************** FINISHED SOLVE FOR LS 3 *************
/com,****************************************************
/com,******************* SOLVE FOR LS 4 OF 60 ****************
/nopr
/gopr
autots,on                  ! Workbench Program Controlled automatic time stepping
nsub,5,1000,1              ! due to presence of nonlinear materials
time,4.
outres,erase
outres,all,none
outres,nsol,all,
outres,rsol,all
outres,eangl,all
outres,etmp,all
outres,veng,all
outres,strs,all,
outres,epel,all,
outres,eppl,all,
outres,cont,all,
solve
/com,****************************************************
/com,*************** FINISHED SOLVE FOR LS 4 *************
/com,****************************************************
/com,******************* SOLVE FOR LS 5 OF 60 ****************
/nopr
/gopr
autots,on                  ! Workbench Program Controlled automatic time stepping
nsub,5,1000,1              ! due to presence of nonlinear materials
time,5.
outres,erase
outres,all,none
outres,nsol,all,
outres,rsol,all
outres,eangl,all
outres,etmp,all
outres,veng,all
outres,strs,all,
outres,epel,all,
outres,eppl,all,
outres,cont,all,
solve
/com,****************************************************
/com,*************** FINISHED SOLVE FOR LS 5 *************
/com,****************************************************
/com,******************* SOLVE FOR LS 6 OF 60 ****************
/nopr
/gopr
autots,on                  ! Workbench Program Controlled automatic time stepping
nsub,5,1000,1              ! due to presence of nonlinear materials
time,6.
outres,erase
outres,all,none
outres,nsol,all,
outres,rsol,all
outres,eangl,all
outres,etmp,all
outres,veng,all
outres,strs,all,
outres,epel,all,
outres,eppl,all,
outres,cont,all,
solve
/com,****************************************************
/com,*************** FINISHED SOLVE FOR LS 6 *************
/com,****************************************************
/com,******************* SOLVE FOR LS 7 OF 60 ****************
/nopr
/gopr
autots,on                  ! Workbench Program Controlled automatic time stepping
nsub,5,1000,1              ! due to presence of nonlinear materials
time,7.
outres,erase
outres,all,none
outres,nsol,all,
outres,rsol,all
outres,eangl,all
outres,etmp,all
outres,veng,all
outres,strs,all,
outres,epel,all,
outres,eppl,all,
outres,cont,all,
solve
/com,****************************************************
/com,*************** FINISHED SOLVE FOR LS 7 *************
/com,****************************************************
/com,******************* SOLVE FOR LS 8 OF 60 ****************
/nopr
/gopr
autots,on                  ! Workbench Program Controlled automatic time stepping
nsub,5,1000,1              ! due to presence of nonlinear materials
time,8.
outres,erase
outres,all,none
outres,nsol,all,
outres,rsol,all
outres,eangl,all
outres,etmp,all
outres,veng,all
outres,strs,all,
outres,epel,all,
outres,eppl,all,
outres,cont,all,
solve
/com,****************************************************
/com,*************** FINISHED SOLVE FOR LS 8 *************
/com,****************************************************
/com,******************* SOLVE FOR LS 9 OF 60 ****************
/nopr
/gopr
autots,on                  ! Workbench Program Controlled automatic time stepping
nsub,5,1000,1              ! due to presence of nonlinear materials
time,9.
outres,erase
outres,all,none
outres,nsol,all,
outres,rsol,all
outres,eangl,all
outres,etmp,all
outres,veng,all
outres,strs,all,
outres,epel,all,
outres,eppl,all,
outres,cont,all,
solve
/com,****************************************************
/com,*************** FINISHED SOLVE FOR LS 9 *************
/com,****************************************************
/com,******************* SOLVE FOR LS 10 OF 60 ****************
/nopr
/gopr
autots,on                  ! Workbench Program Controlled automatic time stepping
nsub,5,1000,1              ! due to presence of nonlinear materials
time,10.
outres,erase
outres,all,none
outres,nsol,all,
outres,rsol,all
outres,eangl,all
outres,etmp,all
outres,veng,all
outres,strs,all,
outres,epel,all,
outres,eppl,all,
outres,cont,all,
solve
/com,****************************************************
/com,*************** FINISHED SOLVE FOR LS 10 *************
/com,****************************************************
/com,******************* SOLVE FOR LS 11 OF 60 ****************
/nopr
/gopr
autots,on                  ! Workbench Program Controlled automatic time stepping
nsub,5,1000,1              ! due to presence of nonlinear materials
time,11.
outres,erase
outres,all,none
outres,nsol,all,
outres,rsol,all
outres,eangl,all
outres,etmp,all
outres,veng,all
outres,strs,all,
outres,epel,all,
outres,eppl,all,
outres,cont,all,
solve
/com,****************************************************
/com,*************** FINISHED SOLVE FOR LS 11 *************
/com,****************************************************
/com,******************* SOLVE FOR LS 12 OF 60 ****************
/nopr
/gopr
autots,on                  ! Workbench Program Controlled automatic time stepping
nsub,5,1000,1              ! due to presence of nonlinear materials
time,12.
outres,erase
outres,all,none
outres,nsol,all,
outres,rsol,all
outres,eangl,all
outres,etmp,all
outres,veng,all
outres,strs,all,
outres,epel,all,
outres,eppl,all,
outres,cont,all,
solve
/com,****************************************************
/com,*************** FINISHED SOLVE FOR LS 12 *************
/com,****************************************************
/com,******************* SOLVE FOR LS 13 OF 60 ****************
/nopr
/gopr
autots,on                  ! Workbench Program Controlled automatic time stepping
nsub,5,1000,1              ! due to presence of nonlinear materials
time,13.
outres,erase
outres,all,none
outres,nsol,all,
outres,rsol,all
outres,eangl,all
outres,etmp,all
outres,veng,all
outres,strs,all,
outres,epel,all,
outres,eppl,all,
outres,cont,all,
solve
/com,****************************************************
/com,*************** FINISHED SOLVE FOR LS 13 *************
/com,****************************************************
/com,******************* SOLVE FOR LS 14 OF 60 ****************
/nopr
/gopr
autots,on                  ! Workbench Program Controlled automatic time stepping
nsub,5,1000,1              ! due to presence of nonlinear materials
time,14.
outres,erase
outres,all,none
outres,nsol,all,
outres,rsol,all
outres,eangl,all
outres,etmp,all
outres,veng,all
outres,strs,all,
outres,epel,all,
outres,eppl,all,
outres,cont,all,
solve
/com,****************************************************
/com,*************** FINISHED SOLVE FOR LS 14 *************
/com,****************************************************
/com,******************* SOLVE FOR LS 15 OF 60 ****************
/nopr
/gopr
autots,on                  ! Workbench Program Controlled automatic time stepping
nsub,5,1000,1              ! due to presence of nonlinear materials
time,15.
outres,erase
outres,all,none
outres,nsol,all,
outres,rsol,all
outres,eangl,all
outres,etmp,all
outres,veng,all
outres,strs,all,
outres,epel,all,
outres,eppl,all,
outres,cont,all,
solve
/com,****************************************************
/com,*************** FINISHED SOLVE FOR LS 15 *************
/com,****************************************************
/com,******************* SOLVE FOR LS 16 OF 60 ****************
/nopr
/gopr
autots,on                  ! Workbench Program Controlled automatic time stepping
nsub,5,1000,1              ! due to presence of nonlinear materials
time,16.
outres,erase
outres,all,none
outres,nsol,all,
outres,rsol,all
outres,eangl,all
outres,etmp,all
outres,veng,all
outres,strs,all,
outres,epel,all,
outres,eppl,all,
outres,cont,all,
solve
/com,****************************************************
/com,*************** FINISHED SOLVE FOR LS 16 *************
/com,****************************************************
/com,******************* SOLVE FOR LS 17 OF 60 ****************
/nopr
/gopr
autots,on                  ! Workbench Program Controlled automatic time stepping
nsub,5,1000,1              ! due to presence of nonlinear materials
time,17.
outres,erase
outres,all,none
outres,nsol,all,
outres,rsol,all
outres,eangl,all
outres,etmp,all
outres,veng,all
outres,strs,all,
outres,epel,all,
outres,eppl,all,
outres,cont,all,
solve
/com,****************************************************
/com,*************** FINISHED SOLVE FOR LS 17 *************
/com,****************************************************
/com,******************* SOLVE FOR LS 18 OF 60 ****************
/nopr
/gopr
autots,on                  ! Workbench Program Controlled automatic time stepping
nsub,5,1000,1              ! due to presence of nonlinear materials
time,18.
outres,erase
outres,all,none
outres,nsol,all,
outres,rsol,all
outres,eangl,all
outres,etmp,all
outres,veng,all
outres,strs,all,
outres,epel,all,
outres,eppl,all,
outres,cont,all,
solve
/com,****************************************************
/com,*************** FINISHED SOLVE FOR LS 18 *************
/com,****************************************************
/com,******************* SOLVE FOR LS 19 OF 60 ****************
/nopr
/gopr
autots,on                  ! Workbench Program Controlled automatic time stepping
nsub,5,1000,1              ! due to presence of nonlinear materials
time,19.
outres,erase
outres,all,none
outres,nsol,all,
outres,rsol,all
outres,eangl,all
outres,etmp,all
outres,veng,all
outres,strs,all,
outres,epel,all,
outres,eppl,all,
outres,cont,all,
solve
/com,****************************************************
/com,*************** FINISHED SOLVE FOR LS 19 *************
/com,****************************************************
/com,******************* SOLVE FOR LS 20 OF 60 ****************
/nopr
/gopr
autots,on                  ! Workbench Program Controlled automatic time stepping
nsub,5,1000,1              ! due to presence of nonlinear materials
time,20.
outres,erase
outres,all,none
outres,nsol,all,
outres,rsol,all
outres,eangl,all
outres,etmp,all
outres,veng,all
outres,strs,all,
outres,epel,all,
outres,eppl,all,
outres,cont,all,
solve
/com,****************************************************
/com,*************** FINISHED SOLVE FOR LS 20 *************
/com,****************************************************
/com,******************* SOLVE FOR LS 21 OF 60 ****************
/nopr
/gopr
autots,on                  ! Workbench Program Controlled automatic time stepping
nsub,5,1000,1              ! due to presence of nonlinear materials
time,21.
outres,erase
outres,all,none
outres,nsol,all,
outres,rsol,all
outres,eangl,all
outres,etmp,all
outres,veng,all
outres,strs,all,
outres,epel,all,
outres,eppl,all,
outres,cont,all,
solve
/com,****************************************************
/com,*************** FINISHED SOLVE FOR LS 21 *************
/com,****************************************************
/com,******************* SOLVE FOR LS 22 OF 60 ****************
/nopr
/gopr
autots,on                  ! Workbench Program Controlled automatic time stepping
nsub,5,1000,1              ! due to presence of nonlinear materials
time,22.
outres,erase
outres,all,none
outres,nsol,all,
outres,rsol,all
outres,eangl,all
outres,etmp,all
outres,veng,all
outres,strs,all,
outres,epel,all,
outres,eppl,all,
outres,cont,all,
solve
/com,****************************************************
/com,*************** FINISHED SOLVE FOR LS 22 *************
/com,****************************************************
/com,******************* SOLVE FOR LS 23 OF 60 ****************
/nopr
/gopr
autots,on                  ! Workbench Program Controlled automatic time stepping
nsub,5,1000,1              ! due to presence of nonlinear materials
time,23.
outres,erase
outres,all,none
outres,nsol,all,
outres,rsol,all
outres,eangl,all
outres,etmp,all
outres,veng,all
outres,strs,all,
outres,epel,all,
outres,eppl,all,
outres,cont,all,
solve
/com,****************************************************
/com,*************** FINISHED SOLVE FOR LS 23 *************
/com,****************************************************
/com,******************* SOLVE FOR LS 24 OF 60 ****************
/nopr
/gopr
autots,on                  ! Workbench Program Controlled automatic time stepping
nsub,5,1000,1              ! due to presence of nonlinear materials
time,24.
outres,erase
outres,all,none
outres,nsol,all,
outres,rsol,all
outres,eangl,all
outres,etmp,all
outres,veng,all
outres,strs,all,
outres,epel,all,
outres,eppl,all,
outres,cont,all,
solve
/com,****************************************************
/com,*************** FINISHED SOLVE FOR LS 24 *************
/com,****************************************************
/com,******************* SOLVE FOR LS 25 OF 60 ****************
/nopr
/gopr
autots,on                  ! Workbench Program Controlled automatic time stepping
nsub,5,1000,1              ! due to presence of nonlinear materials
time,25.
outres,erase
outres,all,none
outres,nsol,all,
outres,rsol,all
outres,eangl,all
outres,etmp,all
outres,veng,all
outres,strs,all,
outres,epel,all,
outres,eppl,all,
outres,cont,all,
solve
/com,****************************************************
/com,*************** FINISHED SOLVE FOR LS 25 *************
/com,****************************************************
/com,******************* SOLVE FOR LS 26 OF 60 ****************
/nopr
/gopr
autots,on                  ! Workbench Program Controlled automatic time stepping
nsub,5,1000,1              ! due to presence of nonlinear materials
time,26.
outres,erase
outres,all,none
outres,nsol,all,
outres,rsol,all
outres,eangl,all
outres,etmp,all
outres,veng,all
outres,strs,all,
outres,epel,all,
outres,eppl,all,
outres,cont,all,
solve
/com,****************************************************
/com,*************** FINISHED SOLVE FOR LS 26 *************
/com,****************************************************
/com,******************* SOLVE FOR LS 27 OF 60 ****************
/nopr
/gopr
autots,on                  ! Workbench Program Controlled automatic time stepping
nsub,5,1000,1              ! due to presence of nonlinear materials
time,27.
outres,erase
outres,all,none
outres,nsol,all,
outres,rsol,all
outres,eangl,all
outres,etmp,all
outres,veng,all
outres,strs,all,
outres,epel,all,
outres,eppl,all,
outres,cont,all,
solve
/com,****************************************************
/com,*************** FINISHED SOLVE FOR LS 27 *************
/com,****************************************************
/com,******************* SOLVE FOR LS 28 OF 60 ****************
/nopr
/gopr
autots,on                  ! Workbench Program Controlled automatic time stepping
nsub,5,1000,1              ! due to presence of nonlinear materials
time,28.
outres,erase
outres,all,none
outres,nsol,all,
outres,rsol,all
outres,eangl,all
outres,etmp,all
outres,veng,all
outres,strs,all,
outres,epel,all,
outres,eppl,all,
outres,cont,all,
solve
/com,****************************************************
/com,*************** FINISHED SOLVE FOR LS 28 *************
/com,****************************************************
/com,******************* SOLVE FOR LS 29 OF 60 ****************
/nopr
/gopr
autots,on                  ! Workbench Program Controlled automatic time stepping
nsub,5,1000,1              ! due to presence of nonlinear materials
time,29.
outres,erase
outres,all,none
outres,nsol,all,
outres,rsol,all
outres,eangl,all
outres,etmp,all
outres,veng,all
outres,strs,all,
outres,epel,all,
outres,eppl,all,
outres,cont,all,
solve
/com,****************************************************
/com,*************** FINISHED SOLVE FOR LS 29 *************
/com,****************************************************
/com,******************* SOLVE FOR LS 30 OF 60 ****************
/nopr
/gopr
autots,on                  ! Workbench Program Controlled automatic time stepping
nsub,5,1000,1              ! due to presence of nonlinear materials
time,30.
outres,erase
outres,all,none
outres,nsol,all,
outres,rsol,all
outres,eangl,all
outres,etmp,all
outres,veng,all
outres,strs,all,
outres,epel,all,
outres,eppl,all,
outres,cont,all,
solve
/com,****************************************************
/com,*************** FINISHED SOLVE FOR LS 30 *************
/com,****************************************************
/com,******************* SOLVE FOR LS 31 OF 60 ****************
/nopr
/gopr
autots,on                  ! Workbench Program Controlled automatic time stepping
nsub,5,1000,1              ! due to presence of nonlinear materials
time,31.
outres,erase
outres,all,none
outres,nsol,all,
outres,rsol,all
outres,eangl,all
outres,etmp,all
outres,veng,all
outres,strs,all,
outres,epel,all,
outres,eppl,all,
outres,cont,all,
solve
/com,****************************************************
/com,*************** FINISHED SOLVE FOR LS 31 *************
/com,****************************************************
/com,******************* SOLVE FOR LS 32 OF 60 ****************
/nopr
/gopr
autots,on                  ! Workbench Program Controlled automatic time stepping
nsub,5,1000,1              ! due to presence of nonlinear materials
time,32.
outres,erase
outres,all,none
outres,nsol,all,
outres,rsol,all
outres,eangl,all
outres,etmp,all
outres,veng,all
outres,strs,all,
outres,epel,all,
outres,eppl,all,
outres,cont,all,
solve
/com,****************************************************
/com,*************** FINISHED SOLVE FOR LS 32 *************
/com,****************************************************
/com,******************* SOLVE FOR LS 33 OF 60 ****************
/nopr
/gopr
autots,on                  ! Workbench Program Controlled automatic time stepping
nsub,5,1000,1              ! due to presence of nonlinear materials
time,33.
outres,erase
outres,all,none
outres,nsol,all,
outres,rsol,all
outres,eangl,all
outres,etmp,all
outres,veng,all
outres,strs,all,
outres,epel,all,
outres,eppl,all,
outres,cont,all,
solve
/com,****************************************************
/com,*************** FINISHED SOLVE FOR LS 33 *************
/com,****************************************************
/com,******************* SOLVE FOR LS 34 OF 60 ****************
/nopr
/gopr
autots,on                  ! Workbench Program Controlled automatic time stepping
nsub,5,1000,1              ! due to presence of nonlinear materials
time,34.
outres,erase
outres,all,none
outres,nsol,all,
outres,rsol,all
outres,eangl,all
outres,etmp,all
outres,veng,all
outres,strs,all,
outres,epel,all,
outres,eppl,all,
outres,cont,all,
solve
/com,****************************************************
/com,*************** FINISHED SOLVE FOR LS 34 *************
/com,****************************************************
/com,******************* SOLVE FOR LS 35 OF 60 ****************
/nopr
/gopr
autots,on                  ! Workbench Program Controlled automatic time stepping
nsub,5,1000,1              ! due to presence of nonlinear materials
time,35.
outres,erase
outres,all,none
outres,nsol,all,
outres,rsol,all
outres,eangl,all
outres,etmp,all
outres,veng,all
outres,strs,all,
outres,epel,all,
outres,eppl,all,
outres,cont,all,
solve
/com,****************************************************
/com,*************** FINISHED SOLVE FOR LS 35 *************
/com,****************************************************
/com,******************* SOLVE FOR LS 36 OF 60 ****************
/nopr
/gopr
autots,on                  ! Workbench Program Controlled automatic time stepping
nsub,5,1000,1              ! due to presence of nonlinear materials
time,36.
outres,erase
outres,all,none
outres,nsol,all,
outres,rsol,all
outres,eangl,all
outres,etmp,all
outres,veng,all
outres,strs,all,
outres,epel,all,
outres,eppl,all,
outres,cont,all,
solve
/com,****************************************************
/com,*************** FINISHED SOLVE FOR LS 36 *************
/com,****************************************************
/com,******************* SOLVE FOR LS 37 OF 60 ****************
/nopr
/gopr
autots,on                  ! Workbench Program Controlled automatic time stepping
nsub,5,1000,1              ! due to presence of nonlinear materials
time,37.
outres,erase
outres,all,none
outres,nsol,all,
outres,rsol,all
outres,eangl,all
outres,etmp,all
outres,veng,all
outres,strs,all,
outres,epel,all,
outres,eppl,all,
outres,cont,all,
solve
/com,****************************************************
/com,*************** FINISHED SOLVE FOR LS 37 *************
/com,****************************************************
/com,******************* SOLVE FOR LS 38 OF 60 ****************
/nopr
/gopr
autots,on                  ! Workbench Program Controlled automatic time stepping
nsub,5,1000,1              ! due to presence of nonlinear materials
time,38.
outres,erase
outres,all,none
outres,nsol,all,
outres,rsol,all
outres,eangl,all
outres,etmp,all
outres,veng,all
outres,strs,all,
outres,epel,all,
outres,eppl,all,
outres,cont,all,
solve
/com,****************************************************
/com,*************** FINISHED SOLVE FOR LS 38 *************
/com,****************************************************
/com,******************* SOLVE FOR LS 39 OF 60 ****************
/nopr
/gopr
autots,on                  ! Workbench Program Controlled automatic time stepping
nsub,5,1000,1              ! due to presence of nonlinear materials
time,39.
outres,erase
outres,all,none
outres,nsol,all,
outres,rsol,all
outres,eangl,all
outres,etmp,all
outres,veng,all
outres,strs,all,
outres,epel,all,
outres,eppl,all,
outres,cont,all,
solve
/com,****************************************************
/com,*************** FINISHED SOLVE FOR LS 39 *************
/com,****************************************************
/com,******************* SOLVE FOR LS 40 OF 60 ****************
/nopr
/gopr
autots,on                  ! Workbench Program Controlled automatic time stepping
nsub,5,1000,1              ! due to presence of nonlinear materials
time,40.
outres,erase
outres,all,none
outres,nsol,all,
outres,rsol,all
outres,eangl,all
outres,etmp,all
outres,veng,all
outres,strs,all,
outres,epel,all,
outres,eppl,all,
outres,cont,all,
solve
/com,****************************************************
/com,*************** FINISHED SOLVE FOR LS 40 *************
/com,****************************************************
/com,******************* SOLVE FOR LS 41 OF 60 ****************
/nopr
/gopr
autots,on                  ! Workbench Program Controlled automatic time stepping
nsub,5,1000,1              ! due to presence of nonlinear materials
time,41.
outres,erase
outres,all,none
outres,nsol,all,
outres,rsol,all
outres,eangl,all
outres,etmp,all
outres,veng,all
outres,strs,all,
outres,epel,all,
outres,eppl,all,
outres,cont,all,
solve
/com,****************************************************
/com,*************** FINISHED SOLVE FOR LS 41 *************
/com,****************************************************
/com,******************* SOLVE FOR LS 42 OF 60 ****************
/nopr
/gopr
autots,on                  ! Workbench Program Controlled automatic time stepping
nsub,5,1000,1              ! due to presence of nonlinear materials
time,42.
outres,erase
outres,all,none
outres,nsol,all,
outres,rsol,all
outres,eangl,all
outres,etmp,all
outres,veng,all
outres,strs,all,
outres,epel,all,
outres,eppl,all,
outres,cont,all,
solve
/com,****************************************************
/com,*************** FINISHED SOLVE FOR LS 42 *************
/com,****************************************************
/com,******************* SOLVE FOR LS 43 OF 60 ****************
/nopr
/gopr
autots,on                  ! Workbench Program Controlled automatic time stepping
nsub,5,1000,1              ! due to presence of nonlinear materials
time,43.
outres,erase
outres,all,none
outres,nsol,all,
outres,rsol,all
outres,eangl,all
outres,etmp,all
outres,veng,all
outres,strs,all,
outres,epel,all,
outres,eppl,all,
outres,cont,all,
solve
/com,****************************************************
/com,*************** FINISHED SOLVE FOR LS 43 *************
/com,****************************************************
/com,******************* SOLVE FOR LS 44 OF 60 ****************
/nopr
/gopr
autots,on                  ! Workbench Program Controlled automatic time stepping
nsub,5,1000,1              ! due to presence of nonlinear materials
time,44.
outres,erase
outres,all,none
outres,nsol,all,
outres,rsol,all
outres,eangl,all
outres,etmp,all
outres,veng,all
outres,strs,all,
outres,epel,all,
outres,eppl,all,
outres,cont,all,
solve
/com,****************************************************
/com,*************** FINISHED SOLVE FOR LS 44 *************
/com,****************************************************
/com,******************* SOLVE FOR LS 45 OF 60 ****************
/nopr
/gopr
autots,on                  ! Workbench Program Controlled automatic time stepping
nsub,5,1000,1              ! due to presence of nonlinear materials
time,45.
outres,erase
outres,all,none
outres,nsol,all,
outres,rsol,all
outres,eangl,all
outres,etmp,all
outres,veng,all
outres,strs,all,
outres,epel,all,
outres,eppl,all,
outres,cont,all,
solve
/com,****************************************************
/com,*************** FINISHED SOLVE FOR LS 45 *************
/com,****************************************************
/com,******************* SOLVE FOR LS 46 OF 60 ****************
/nopr
/gopr
autots,on                  ! Workbench Program Controlled automatic time stepping
nsub,5,1000,1              ! due to presence of nonlinear materials
time,46.
outres,erase
outres,all,none
outres,nsol,all,
outres,rsol,all
outres,eangl,all
outres,etmp,all
outres,veng,all
outres,strs,all,
outres,epel,all,
outres,eppl,all,
outres,cont,all,
solve
/com,****************************************************
/com,*************** FINISHED SOLVE FOR LS 46 *************
/com,****************************************************
/com,******************* SOLVE FOR LS 47 OF 60 ****************
/nopr
/gopr
autots,on                  ! Workbench Program Controlled automatic time stepping
nsub,5,1000,1              ! due to presence of nonlinear materials
time,47.
outres,erase
outres,all,none
outres,nsol,all,
outres,rsol,all
outres,eangl,all
outres,etmp,all
outres,veng,all
outres,strs,all,
outres,epel,all,
outres,eppl,all,
outres,cont,all,
solve
/com,****************************************************
/com,*************** FINISHED SOLVE FOR LS 47 *************
/com,****************************************************
/com,******************* SOLVE FOR LS 48 OF 60 ****************
/nopr
/gopr
autots,on                  ! Workbench Program Controlled automatic time stepping
nsub,5,1000,1              ! due to presence of nonlinear materials
time,48.
outres,erase
outres,all,none
outres,nsol,all,
outres,rsol,all
outres,eangl,all
outres,etmp,all
outres,veng,all
outres,strs,all,
outres,epel,all,
outres,eppl,all,
outres,cont,all,
solve
/com,****************************************************
/com,*************** FINISHED SOLVE FOR LS 48 *************
/com,****************************************************
/com,******************* SOLVE FOR LS 49 OF 60 ****************
/nopr
/gopr
autots,on                  ! Workbench Program Controlled automatic time stepping
nsub,5,1000,1              ! due to presence of nonlinear materials
time,49.
outres,erase
outres,all,none
outres,nsol,all,
outres,rsol,all
outres,eangl,all
outres,etmp,all
outres,veng,all
outres,strs,all,
outres,epel,all,
outres,eppl,all,
outres,cont,all,
solve
/com,****************************************************
/com,*************** FINISHED SOLVE FOR LS 49 *************
/com,****************************************************
/com,******************* SOLVE FOR LS 50 OF 60 ****************
/nopr
/gopr
autots,on                  ! Workbench Program Controlled automatic time stepping
nsub,5,1000,1              ! due to presence of nonlinear materials
time,50.
outres,erase
outres,all,none
outres,nsol,all,
outres,rsol,all
outres,eangl,all
outres,etmp,all
outres,veng,all
outres,strs,all,
outres,epel,all,
outres,eppl,all,
outres,cont,all,
solve
/com,****************************************************
/com,*************** FINISHED SOLVE FOR LS 50 *************
/com,****************************************************
/com,******************* SOLVE FOR LS 51 OF 60 ****************
/nopr
/gopr
autots,on                  ! Workbench Program Controlled automatic time stepping
nsub,5,1000,1              ! due to presence of nonlinear materials
time,51.
outres,erase
outres,all,none
outres,nsol,all,
outres,rsol,all
outres,eangl,all
outres,etmp,all
outres,veng,all
outres,strs,all,
outres,epel,all,
outres,eppl,all,
outres,cont,all,
solve
/com,****************************************************
/com,*************** FINISHED SOLVE FOR LS 51 *************
/com,****************************************************
/com,******************* SOLVE FOR LS 52 OF 60 ****************
/nopr
/gopr
autots,on                  ! Workbench Program Controlled automatic time stepping
nsub,5,1000,1              ! due to presence of nonlinear materials
time,52.
outres,erase
outres,all,none
outres,nsol,all,
outres,rsol,all
outres,eangl,all
outres,etmp,all
outres,veng,all
outres,strs,all,
outres,epel,all,
outres,eppl,all,
outres,cont,all,
solve
/com,****************************************************
/com,*************** FINISHED SOLVE FOR LS 52 *************
/com,****************************************************
/com,******************* SOLVE FOR LS 53 OF 60 ****************
/nopr
/gopr
autots,on                  ! Workbench Program Controlled automatic time stepping
nsub,5,1000,1              ! due to presence of nonlinear materials
time,53.
outres,erase
outres,all,none
outres,nsol,all,
outres,rsol,all
outres,eangl,all
outres,etmp,all
outres,veng,all
outres,strs,all,
outres,epel,all,
outres,eppl,all,
outres,cont,all,
solve
/com,****************************************************
/com,*************** FINISHED SOLVE FOR LS 53 *************
/com,****************************************************
/com,******************* SOLVE FOR LS 54 OF 60 ****************
/nopr
/gopr
autots,on                  ! Workbench Program Controlled automatic time stepping
nsub,5,1000,1              ! due to presence of nonlinear materials
time,54.
outres,erase
outres,all,none
outres,nsol,all,
outres,rsol,all
outres,eangl,all
outres,etmp,all
outres,veng,all
outres,strs,all,
outres,epel,all,
outres,eppl,all,
outres,cont,all,
solve
/com,****************************************************
/com,*************** FINISHED SOLVE FOR LS 54 *************
/com,****************************************************
/com,******************* SOLVE FOR LS 55 OF 60 ****************
/nopr
/gopr
autots,on                  ! Workbench Program Controlled automatic time stepping
nsub,5,1000,1              ! due to presence of nonlinear materials
time,55.
outres,erase
outres,all,none
outres,nsol,all,
outres,rsol,all
outres,eangl,all
outres,etmp,all
outres,veng,all
outres,strs,all,
outres,epel,all,
outres,eppl,all,
outres,cont,all,
solve
/com,****************************************************
/com,*************** FINISHED SOLVE FOR LS 55 *************
/com,****************************************************
/com,******************* SOLVE FOR LS 56 OF 60 ****************
/nopr
/gopr
autots,on                  ! Workbench Program Controlled automatic time stepping
nsub,5,1000,1              ! due to presence of nonlinear materials
time,56.
outres,erase
outres,all,none
outres,nsol,all,
outres,rsol,all
outres,eangl,all
outres,etmp,all
outres,veng,all
outres,strs,all,
outres,epel,all,
outres,eppl,all,
outres,cont,all,
solve
/com,****************************************************
/com,*************** FINISHED SOLVE FOR LS 56 *************
/com,****************************************************
/com,******************* SOLVE FOR LS 57 OF 60 ****************
/nopr
/gopr
autots,on                  ! Workbench Program Controlled automatic time stepping
nsub,5,1000,1              ! due to presence of nonlinear materials
time,57.
outres,erase
outres,all,none
outres,nsol,all,
outres,rsol,all
outres,eangl,all
outres,etmp,all
outres,veng,all
outres,strs,all,
outres,epel,all,
outres,eppl,all,
outres,cont,all,
solve
/com,****************************************************
/com,*************** FINISHED SOLVE FOR LS 57 *************
/com,****************************************************
/com,******************* SOLVE FOR LS 58 OF 60 ****************
/nopr
/gopr
autots,on                  ! Workbench Program Controlled automatic time stepping
nsub,5,1000,1              ! due to presence of nonlinear materials
time,58.
outres,erase
outres,all,none
outres,nsol,all,
outres,rsol,all
outres,eangl,all
outres,etmp,all
outres,veng,all
outres,strs,all,
outres,epel,all,
outres,eppl,all,
outres,cont,all,
solve
/com,****************************************************
/com,*************** FINISHED SOLVE FOR LS 58 *************
/com,****************************************************
/com,******************* SOLVE FOR LS 59 OF 60 ****************
/nopr
/gopr
autots,on                  ! Workbench Program Controlled automatic time stepping
nsub,5,1000,1              ! due to presence of nonlinear materials
time,59.
outres,erase
outres,all,none
outres,nsol,all,
outres,rsol,all
outres,eangl,all
outres,etmp,all
outres,veng,all
outres,strs,all,
outres,epel,all,
outres,eppl,all,
outres,cont,all,
solve
/com,****************************************************
/com,*************** FINISHED SOLVE FOR LS 59 *************
/com,****************************************************
/com,******************* SOLVE FOR LS 60 OF 60 ****************
/nopr
/gopr
autots,on                  ! Workbench Program Controlled automatic time stepping
nsub,5,1000,1              ! due to presence of nonlinear materials
time,60.
outres,erase
outres,all,none
outres,nsol,all,
outres,rsol,all
outres,eangl,all
outres,etmp,all
outres,veng,all
outres,strs,all,
outres,epel,all,
outres,eppl,all,
outres,cont,all,
solve
/com,****************************************************
/com,*************** FINISHED SOLVE FOR LS 60 *************
*get,_wallasol,active,,time,wall
/nopr
*get,_numnode,node,0,count
*get,_numelem,elem,0,count
*get, _MAXELEMNUM, elem, 0, NUM, MAX
*get, _MAXNODENUM, node, 0, NUM, MAX,,,INTERNAL
*get, _MAXELEMTYPE, etyp, 0, NUM, MAX
*get, _MAXREALCONST, rcon, 0, NUM, MAX
*get,_NSOLTHREADS,active,0,ntfs
*get,_NSOLPROCESSES,active,0,npfs
/gopr
/post1
xmlo,ENCODING,ISO-8859-1
xmlo,parm
/xml,parm,xml
fini
/gopr
*get,_walldone,active,,time,wall
_preptime=(_wallbsol-_wallstrt)*3600
_solvtime=(_wallasol-_wallbsol)*3600
_posttime=(_walldone-_wallasol)*3600
_totaltim=(_walldone-_wallstrt)*3600
*get,_dlbratio,active,0,solu,dlbr
*get,_combtime,active,0,solu,comb
*get,_ssmode,active,0,solu,ssmm
*get,_ndofs,active,0,solu,ndof
*get,_sol_end_time,active,0,set,time
*if,_sol_end_time,eq,60.000000,then
/fclean				!clean distributed files
*endif
/com,--- Total number of nodes = %_numnode%
/com,--- Total number of elements = %_numelem%
/com,--- Element load balance ratio = %_dlbratio%
/com,--- Time to combine distributed files = %_combtime%
/com,--- Sparse memory mode = %_ssmode%
/com,--- Number of DOF = %_ndofs%
/wb,file,end               ! done with WB generated input
